/*--------------------------------*- C++ -*----------------------------------*\
| =========                 |                                                 |
| \\      /  F ield         | OpenFOAM: The Open Source CFD Toolbox           |
|  \\    /   O peration     | Version:  2.1.0                                 |
|   \\  /    A nd           | Web:      www.OpenFOAM.org                      |
|    \\/     M anipulation  |                                                 |
\*---------------------------------------------------------------------------*/
FoamFile
{
    version     2.0;
    format      ascii;
    class       polyBoundaryMesh;
    location    "constant/polyMesh";
    object      boundary;
}
// * * * * * * * * * * * * * * * * * * * * * * * * * * * * * * * * * * * * * //

5
(
    wing
    {
        type            wall;
        nFaces          100;
        startFace       44040;
    }
    inlet
    {
        type            wall;
        nFaces          120;
        startFace       44140;
    }
    outlet
    {
        type            wall;
        nFaces          120;
        startFace       44260;
    }
    topAndBottom
    {
        type            wall;
        nFaces          380;
        startFace       44380;
    }
    frontAndBack
    {
        type            empty;
        nFaces          44400;
        startFace       44760;
    }
)

// ************************************************************************* //
