/*--------------------------------*- C++ -*----------------------------------*\
| =========                 |                                                 |
| \\      /  F ield         | OpenFOAM: The Open Source CFD Toolbox           |
|  \\    /   O peration     | Version:  1.7.1                                 |
|   \\  /    A nd           | Web:      www.OpenFOAM.com                      |
|    \\/     M anipulation  |                                                 |
\*---------------------------------------------------------------------------*/
FoamFile
{
    version     2.0;
    format      ascii;
    class       dictionary;
    object      extrudeProperties;
}
// * * * * * * * * * * * * * * * * * * * * * * * * * * * * * * * * * * * * * //
// Where to get surface from: either from surface ('surface') or
// from (flipped) patch of existing case ('patch')
constructFrom patch;    //surface;

// If construct from (flipped) patch
sourceCase "../reference/";
sourcePatch front;

// If construct from patch: patch to use for back (can be same as sourcePatch)
exposedPatchName back;

// Flip surface normals before usage.
flipNormals false;


//- Linear extrusion in point-normal direction
extrudeModel        linearNormal;

nLayers          1;

expansionRatio      1.0;

linearNormalCoeffs
{
    thickness       0.05;
}

// Do front and back need to be merged? Usually only makes sense for 360
// degree wedges.
mergeFaces false; 


// * * * * * * * * * * * * * * * * * * * * * * * * * * * * * * * * * * * * * //
